<?xml version="1.0" encoding="UTF-8"?>

<!-- generated on 2026-02-24T18:38:32.123831+05:30 by Eclipse SUMO netconvert 1.26.0
<netconvertConfiguration xmlns:xsi="http://www.w3.org/2001/XMLSchema-instance" xsi:noNamespaceSchemaLocation="http://sumo.dlr.de/xsd/netconvertConfiguration.xsd">

    <input>
        <node-files value="nodes.nod.xml"/>
        <edge-files value="edges.edg.xml"/>
    </input>

    <output>
        <output-file value="intersection.net.xml"/>
    </output>

</netconvertConfiguration>
-->

<net version="1.20" junctionCornerDetail="5" limitTurnSpeed="5.50" xmlns:xsi="http://www.w3.org/2001/XMLSchema-instance" xsi:noNamespaceSchemaLocation="http://sumo.dlr.de/xsd/net_file.xsd">

    <location netOffset="200.00,200.00" convBoundary="0.00,0.00,400.00,400.00" origBoundary="-200.00,-200.00,200.00,200.00" projParameter="!"/>

    <edge id=":C_0" function="internal">
        <lane id=":C_0_0" index="0" speed="6.51" length="9.03" shape="195.20,210.40 194.85,207.95 193.80,206.20 192.05,205.15 189.60,204.80"/>
    </edge>
    <edge id=":C_1" function="internal">
        <lane id=":C_1_0" index="0" speed="13.90" length="20.80" shape="195.20,210.40 195.20,189.60"/>
        <lane id=":C_1_1" index="1" speed="13.90" length="20.80" shape="198.40,210.40 198.40,189.60"/>
    </edge>
    <edge id=":C_3" function="internal">
        <lane id=":C_3_0" index="0" speed="9.26" length="5.01" shape="198.40,210.40 199.11,205.44"/>
    </edge>
    <edge id=":C_4" function="internal">
        <lane id=":C_4_0" index="0" speed="3.65" length="1.44" shape="198.40,210.40 199.20,209.20"/>
    </edge>
    <edge id=":C_20" function="internal">
        <lane id=":C_20_0" index="0" speed="9.26" length="14.34" shape="199.11,205.44 199.15,205.15 201.40,201.40 205.15,199.15 210.40,198.40"/>
    </edge>
    <edge id=":C_21" function="internal">
        <lane id=":C_21_0" index="0" speed="3.65" length="3.23" shape="199.20,209.20 200.00,208.80 200.80,209.20 201.60,210.40"/>
    </edge>
    <edge id=":C_5" function="internal">
        <lane id=":C_5_0" index="0" speed="6.51" length="9.03" shape="210.40,204.80 207.95,205.15 206.20,206.20 205.15,207.95 204.80,210.40"/>
    </edge>
    <edge id=":C_6" function="internal">
        <lane id=":C_6_0" index="0" speed="13.90" length="20.80" shape="210.40,204.80 189.60,204.80"/>
        <lane id=":C_6_1" index="1" speed="13.90" length="20.80" shape="210.40,201.60 189.60,201.60"/>
    </edge>
    <edge id=":C_8" function="internal">
        <lane id=":C_8_0" index="0" speed="9.26" length="5.01" shape="210.40,201.60 205.44,200.89"/>
    </edge>
    <edge id=":C_9" function="internal">
        <lane id=":C_9_0" index="0" speed="3.65" length="1.44" shape="210.40,201.60 209.20,200.80"/>
    </edge>
    <edge id=":C_22" function="internal">
        <lane id=":C_22_0" index="0" speed="9.26" length="14.34" shape="205.44,200.89 205.15,200.85 201.40,198.60 199.15,194.85 198.40,189.60"/>
    </edge>
    <edge id=":C_23" function="internal">
        <lane id=":C_23_0" index="0" speed="3.65" length="3.23" shape="209.20,200.80 208.80,200.00 209.20,199.20 210.40,198.40"/>
    </edge>
    <edge id=":C_10" function="internal">
        <lane id=":C_10_0" index="0" speed="6.51" length="9.03" shape="204.80,189.60 205.15,192.05 206.20,193.80 207.95,194.85 210.40,195.20"/>
    </edge>
    <edge id=":C_11" function="internal">
        <lane id=":C_11_0" index="0" speed="13.90" length="20.80" shape="204.80,189.60 204.80,210.40"/>
        <lane id=":C_11_1" index="1" speed="13.90" length="20.80" shape="201.60,189.60 201.60,210.40"/>
    </edge>
    <edge id=":C_13" function="internal">
        <lane id=":C_13_0" index="0" speed="9.26" length="5.01" shape="201.60,189.60 200.89,194.56"/>
    </edge>
    <edge id=":C_14" function="internal">
        <lane id=":C_14_0" index="0" speed="3.65" length="1.44" shape="201.60,189.60 200.80,190.80"/>
    </edge>
    <edge id=":C_24" function="internal">
        <lane id=":C_24_0" index="0" speed="9.26" length="14.34" shape="200.89,194.56 200.85,194.85 198.60,198.60 194.85,200.85 189.60,201.60"/>
    </edge>
    <edge id=":C_25" function="internal">
        <lane id=":C_25_0" index="0" speed="3.65" length="3.23" shape="200.80,190.80 200.00,191.20 199.20,190.80 198.40,189.60"/>
    </edge>
    <edge id=":C_15" function="internal">
        <lane id=":C_15_0" index="0" speed="6.51" length="9.03" shape="189.60,195.20 192.05,194.85 193.80,193.80 194.85,192.05 195.20,189.60"/>
    </edge>
    <edge id=":C_16" function="internal">
        <lane id=":C_16_0" index="0" speed="13.90" length="20.80" shape="189.60,195.20 210.40,195.20"/>
        <lane id=":C_16_1" index="1" speed="13.90" length="20.80" shape="189.60,198.40 210.40,198.40"/>
    </edge>
    <edge id=":C_18" function="internal">
        <lane id=":C_18_0" index="0" speed="9.26" length="5.01" shape="189.60,198.40 194.56,199.11"/>
    </edge>
    <edge id=":C_19" function="internal">
        <lane id=":C_19_0" index="0" speed="3.65" length="1.44" shape="189.60,198.40 190.80,199.20"/>
    </edge>
    <edge id=":C_26" function="internal">
        <lane id=":C_26_0" index="0" speed="9.26" length="14.34" shape="194.56,199.11 194.85,199.15 198.60,201.40 200.85,205.15 201.60,210.40"/>
    </edge>
    <edge id=":C_27" function="internal">
        <lane id=":C_27_0" index="0" speed="3.65" length="3.23" shape="190.80,199.20 191.20,200.00 190.80,200.80 189.60,201.60"/>
    </edge>
    <edge id=":E_0" function="internal">
        <lane id=":E_0_0" index="0" speed="3.65" length="4.67" shape="400.00,198.40 401.20,199.20 401.60,200.00 401.20,200.80 400.00,201.60"/>
    </edge>
    <edge id=":N_0" function="internal">
        <lane id=":N_0_0" index="0" speed="3.65" length="4.67" shape="201.60,400.00 200.80,401.20 200.00,401.60 199.20,401.20 198.40,400.00"/>
    </edge>
    <edge id=":S_0" function="internal">
        <lane id=":S_0_0" index="0" speed="3.65" length="4.67" shape="198.40,0.00 199.20,-1.20 200.00,-1.60 200.80,-1.20 201.60,0.00"/>
    </edge>
    <edge id=":W_0" function="internal">
        <lane id=":W_0_0" index="0" speed="3.65" length="4.67" shape="0.00,201.60 -1.20,200.80 -1.60,200.00 -1.20,199.20 0.00,198.40"/>
    </edge>

    <edge id="C2E" from="C" to="E" priority="-1">
        <lane id="C2E_0" index="0" speed="13.90" length="189.60" shape="210.40,195.20 400.00,195.20"/>
        <lane id="C2E_1" index="1" speed="13.90" length="189.60" shape="210.40,198.40 400.00,198.40"/>
    </edge>
    <edge id="C2N" from="C" to="N" priority="-1">
        <lane id="C2N_0" index="0" speed="13.90" length="189.60" shape="204.80,210.40 204.80,400.00"/>
        <lane id="C2N_1" index="1" speed="13.90" length="189.60" shape="201.60,210.40 201.60,400.00"/>
    </edge>
    <edge id="C2S" from="C" to="S" priority="-1">
        <lane id="C2S_0" index="0" speed="13.90" length="189.60" shape="195.20,189.60 195.20,0.00"/>
        <lane id="C2S_1" index="1" speed="13.90" length="189.60" shape="198.40,189.60 198.40,0.00"/>
    </edge>
    <edge id="C2W" from="C" to="W" priority="-1">
        <lane id="C2W_0" index="0" speed="13.90" length="189.60" shape="189.60,204.80 0.00,204.80"/>
        <lane id="C2W_1" index="1" speed="13.90" length="189.60" shape="189.60,201.60 0.00,201.60"/>
    </edge>
    <edge id="E2C" from="E" to="C" priority="-1">
        <lane id="E2C_0" index="0" speed="13.90" length="189.60" shape="400.00,204.80 210.40,204.80"/>
        <lane id="E2C_1" index="1" speed="13.90" length="189.60" shape="400.00,201.60 210.40,201.60"/>
    </edge>
    <edge id="N2C" from="N" to="C" priority="-1">
        <lane id="N2C_0" index="0" speed="13.90" length="189.60" shape="195.20,400.00 195.20,210.40"/>
        <lane id="N2C_1" index="1" speed="13.90" length="189.60" shape="198.40,400.00 198.40,210.40"/>
    </edge>
    <edge id="S2C" from="S" to="C" priority="-1">
        <lane id="S2C_0" index="0" speed="13.90" length="189.60" shape="204.80,0.00 204.80,189.60"/>
        <lane id="S2C_1" index="1" speed="13.90" length="189.60" shape="201.60,0.00 201.60,189.60"/>
    </edge>
    <edge id="W2C" from="W" to="C" priority="-1">
        <lane id="W2C_0" index="0" speed="13.90" length="189.60" shape="0.00,195.20 189.60,195.20"/>
        <lane id="W2C_1" index="1" speed="13.90" length="189.60" shape="0.00,198.40 189.60,198.40"/>
    </edge>

    <tlLogic id="C" type="static" programID="0" offset="0">
        <phase duration="42" state="GGGggrrrrrGGGggrrrrr"/>
        <phase duration="3"  state="yyyyyrrrrryyyyyrrrrr"/>
        <phase duration="42" state="rrrrrGGGggrrrrrGGGgg"/>
        <phase duration="3"  state="rrrrryyyyyrrrrryyyyy"/>
    </tlLogic>

    <junction id="C" type="traffic_light" x="200.00" y="200.00" incLanes="N2C_0 N2C_1 E2C_0 E2C_1 S2C_0 S2C_1 W2C_0 W2C_1" intLanes=":C_0_0 :C_1_0 :C_1_1 :C_20_0 :C_21_0 :C_5_0 :C_6_0 :C_6_1 :C_22_0 :C_23_0 :C_10_0 :C_11_0 :C_11_1 :C_24_0 :C_25_0 :C_15_0 :C_16_0 :C_16_1 :C_26_0 :C_27_0" shape="193.60,210.40 206.40,210.40 206.84,208.18 207.40,207.40 208.18,206.84 209.18,206.51 210.40,206.40 210.40,193.60 208.18,193.16 207.40,192.60 206.84,191.82 206.51,190.82 206.40,189.60 193.60,189.60 193.16,191.82 192.60,192.60 191.82,193.16 190.82,193.49 189.60,193.60 189.60,206.40 191.82,206.84 192.60,207.40 193.16,208.18 193.49,209.18">
        <request index="0"  response="00000000000000000000" foes="00000000000011000000" cont="0"/>
        <request index="1"  response="01000000000000000000" foes="01111110000111000000" cont="0"/>
        <request index="2"  response="01000000000100000000" foes="01111110000111000000" cont="0"/>
        <request index="3"  response="01000001100100000000" foes="01110001101111000000" cont="1"/>
        <request index="4"  response="01000001100000000000" foes="01000001100000000000" cont="1"/>
        <request index="5"  response="00000001100000000000" foes="00000001100000000000" cont="0"/>
        <request index="6"  response="00000011100000001111" foes="11000011100000001111" cont="0"/>
        <request index="7"  response="00000011100000001111" foes="11000011100000001111" cont="0"/>
        <request index="8"  response="00110011100000001110" foes="00110111100000001110" cont="1"/>
        <request index="9"  response="00110000000000001000" foes="00110000000000001000" cont="1"/>
        <request index="10" response="00000000000000000000" foes="00110000000000000000" cont="0"/>
        <request index="11" response="00000000000100000000" foes="01110000000111111000" cont="0"/>
        <request index="12" response="01000000000100000000" foes="01110000000111111000" cont="0"/>
        <request index="13" response="01000000000100000110" foes="11110000000111000110" cont="1"/>
        <request index="14" response="00000000000100000110" foes="00000000000100000110" cont="1"/>
        <request index="15" response="00000000000000000110" foes="00000000000000000110" cont="0"/>
        <request index="16" response="00000011110000001110" foes="00000011111100001110" cont="0"/>
        <request index="17" response="00000011110000001110" foes="00000011111100001110" cont="0"/>
        <request index="18" response="00000011100011001110" foes="00000011100011011110" cont="1"/>
        <request index="19" response="00000010000011000000" foes="00000010000011000000" cont="1"/>
    </junction>
    <junction id="E" type="priority" x="400.00" y="200.00" incLanes="C2E_0 C2E_1" intLanes=":E_0_0" shape="400.00,200.00 400.00,193.60 400.00,200.00">
        <request index="0" response="0" foes="0" cont="0"/>
    </junction>
    <junction id="N" type="priority" x="200.00" y="400.00" incLanes="C2N_0 C2N_1" intLanes=":N_0_0" shape="200.00,400.00 206.40,400.00 200.00,400.00">
        <request index="0" response="0" foes="0" cont="0"/>
    </junction>
    <junction id="S" type="priority" x="200.00" y="0.00" incLanes="C2S_0 C2S_1" intLanes=":S_0_0" shape="200.00,0.00 193.60,0.00 200.00,0.00">
        <request index="0" response="0" foes="0" cont="0"/>
    </junction>
    <junction id="W" type="priority" x="0.00" y="200.00" incLanes="C2W_0 C2W_1" intLanes=":W_0_0" shape="0.00,200.00 0.00,206.40 0.00,200.00">
        <request index="0" response="0" foes="0" cont="0"/>
    </junction>

    <junction id=":C_20_0" type="internal" x="199.11" y="205.44" incLanes=":C_3_0 S2C_0 S2C_1" intLanes=":C_6_0 :C_6_1 :C_8_0 :C_9_0 :C_10_0 :C_11_0 :C_11_1 :C_16_0 :C_16_1 :C_18_0"/>
    <junction id=":C_21_0" type="internal" x="199.20" y="209.20" incLanes=":C_4_0 E2C_0 S2C_0 S2C_1 W2C_1" intLanes=":C_5_0 :C_11_0 :C_11_1 :C_18_0"/>
    <junction id=":C_22_0" type="internal" x="205.44" y="200.89" incLanes=":C_8_0 W2C_0 W2C_1" intLanes=":C_1_0 :C_1_1 :C_3_0 :C_11_0 :C_11_1 :C_13_0 :C_14_0 :C_15_0 :C_16_0 :C_16_1"/>
    <junction id=":C_23_0" type="internal" x="209.20" y="200.80" incLanes=":C_9_0 N2C_1 S2C_0 W2C_0 W2C_1" intLanes=":C_3_0 :C_10_0 :C_16_0 :C_16_1"/>
    <junction id=":C_24_0" type="internal" x="200.89" y="194.56" incLanes=":C_13_0 N2C_0 N2C_1" intLanes=":C_0_0 :C_1_0 :C_1_1 :C_6_0 :C_6_1 :C_8_0 :C_16_0 :C_16_1 :C_18_0 :C_19_0"/>
    <junction id=":C_25_0" type="internal" x="200.80" y="190.80" incLanes=":C_14_0 E2C_1 N2C_0 N2C_1 W2C_0" intLanes=":C_1_0 :C_1_1 :C_8_0 :C_15_0"/>
    <junction id=":C_26_0" type="internal" x="194.56" y="199.11" incLanes=":C_18_0 E2C_0 E2C_1" intLanes=":C_1_0 :C_1_1 :C_3_0 :C_4_0 :C_5_0 :C_6_0 :C_6_1 :C_11_0 :C_11_1 :C_13_0"/>
    <junction id=":C_27_0" type="internal" x="190.80" y="199.20" incLanes=":C_19_0 E2C_0 E2C_1 N2C_0 S2C_1" intLanes=":C_0_0 :C_6_0 :C_6_1 :C_13_0"/>

    <connection from="C2E" to="E2C" fromLane="1" toLane="1" via=":E_0_0" dir="t" state="M"/>
    <connection from="C2N" to="N2C" fromLane="1" toLane="1" via=":N_0_0" dir="t" state="M"/>
    <connection from="C2S" to="S2C" fromLane="1" toLane="1" via=":S_0_0" dir="t" state="M"/>
    <connection from="C2W" to="W2C" fromLane="1" toLane="1" via=":W_0_0" dir="t" state="M"/>
    <connection from="E2C" to="C2N" fromLane="0" toLane="0" via=":C_5_0" tl="C" linkIndex="5" dir="r" state="o"/>
    <connection from="E2C" to="C2W" fromLane="0" toLane="0" via=":C_6_0" tl="C" linkIndex="6" dir="s" state="o"/>
    <connection from="E2C" to="C2W" fromLane="1" toLane="1" via=":C_6_1" tl="C" linkIndex="7" dir="s" state="o"/>
    <connection from="E2C" to="C2S" fromLane="1" toLane="1" via=":C_8_0" tl="C" linkIndex="8" dir="l" state="o"/>
    <connection from="E2C" to="C2E" fromLane="1" toLane="1" via=":C_9_0" tl="C" linkIndex="9" dir="t" state="o"/>
    <connection from="N2C" to="C2W" fromLane="0" toLane="0" via=":C_0_0" tl="C" linkIndex="0" dir="r" state="O"/>
    <connection from="N2C" to="C2S" fromLane="0" toLane="0" via=":C_1_0" tl="C" linkIndex="1" dir="s" state="O"/>
    <connection from="N2C" to="C2S" fromLane="1" toLane="1" via=":C_1_1" tl="C" linkIndex="2" dir="s" state="O"/>
    <connection from="N2C" to="C2E" fromLane="1" toLane="1" via=":C_3_0" tl="C" linkIndex="3" dir="l" state="o"/>
    <connection from="N2C" to="C2N" fromLane="1" toLane="1" via=":C_4_0" tl="C" linkIndex="4" dir="t" state="o"/>
    <connection from="S2C" to="C2E" fromLane="0" toLane="0" via=":C_10_0" tl="C" linkIndex="10" dir="r" state="O"/>
    <connection from="S2C" to="C2N" fromLane="0" toLane="0" via=":C_11_0" tl="C" linkIndex="11" dir="s" state="O"/>
    <connection from="S2C" to="C2N" fromLane="1" toLane="1" via=":C_11_1" tl="C" linkIndex="12" dir="s" state="O"/>
    <connection from="S2C" to="C2W" fromLane="1" toLane="1" via=":C_13_0" tl="C" linkIndex="13" dir="l" state="o"/>
    <connection from="S2C" to="C2S" fromLane="1" toLane="1" via=":C_14_0" tl="C" linkIndex="14" dir="t" state="o"/>
    <connection from="W2C" to="C2S" fromLane="0" toLane="0" via=":C_15_0" tl="C" linkIndex="15" dir="r" state="o"/>
    <connection from="W2C" to="C2E" fromLane="0" toLane="0" via=":C_16_0" tl="C" linkIndex="16" dir="s" state="o"/>
    <connection from="W2C" to="C2E" fromLane="1" toLane="1" via=":C_16_1" tl="C" linkIndex="17" dir="s" state="o"/>
    <connection from="W2C" to="C2N" fromLane="1" toLane="1" via=":C_18_0" tl="C" linkIndex="18" dir="l" state="o"/>
    <connection from="W2C" to="C2W" fromLane="1" toLane="1" via=":C_19_0" tl="C" linkIndex="19" dir="t" state="o"/>

    <connection from=":C_0" to="C2W" fromLane="0" toLane="0" dir="r" state="M"/>
    <connection from=":C_1" to="C2S" fromLane="0" toLane="0" dir="s" state="M"/>
    <connection from=":C_1" to="C2S" fromLane="1" toLane="1" dir="s" state="M"/>
    <connection from=":C_3" to="C2E" fromLane="0" toLane="1" via=":C_20_0" dir="l" state="m"/>
    <connection from=":C_20" to="C2E" fromLane="0" toLane="1" dir="l" state="M"/>
    <connection from=":C_4" to="C2N" fromLane="0" toLane="1" via=":C_21_0" dir="t" state="m"/>
    <connection from=":C_21" to="C2N" fromLane="0" toLane="1" dir="t" state="M"/>
    <connection from=":C_5" to="C2N" fromLane="0" toLane="0" dir="r" state="M"/>
    <connection from=":C_6" to="C2W" fromLane="0" toLane="0" dir="s" state="M"/>
    <connection from=":C_6" to="C2W" fromLane="1" toLane="1" dir="s" state="M"/>
    <connection from=":C_8" to="C2S" fromLane="0" toLane="1" via=":C_22_0" dir="l" state="m"/>
    <connection from=":C_22" to="C2S" fromLane="0" toLane="1" dir="l" state="M"/>
    <connection from=":C_9" to="C2E" fromLane="0" toLane="1" via=":C_23_0" dir="t" state="m"/>
    <connection from=":C_23" to="C2E" fromLane="0" toLane="1" dir="t" state="M"/>
    <connection from=":C_10" to="C2E" fromLane="0" toLane="0" dir="r" state="M"/>
    <connection from=":C_11" to="C2N" fromLane="0" toLane="0" dir="s" state="M"/>
    <connection from=":C_11" to="C2N" fromLane="1" toLane="1" dir="s" state="M"/>
    <connection from=":C_13" to="C2W" fromLane="0" toLane="1" via=":C_24_0" dir="l" state="m"/>
    <connection from=":C_24" to="C2W" fromLane="0" toLane="1" dir="l" state="M"/>
    <connection from=":C_14" to="C2S" fromLane="0" toLane="1" via=":C_25_0" dir="t" state="m"/>
    <connection from=":C_25" to="C2S" fromLane="0" toLane="1" dir="t" state="M"/>
    <connection from=":C_15" to="C2S" fromLane="0" toLane="0" dir="r" state="M"/>
    <connection from=":C_16" to="C2E" fromLane="0" toLane="0" dir="s" state="M"/>
    <connection from=":C_16" to="C2E" fromLane="1" toLane="1" dir="s" state="M"/>
    <connection from=":C_18" to="C2N" fromLane="0" toLane="1" via=":C_26_0" dir="l" state="m"/>
    <connection from=":C_26" to="C2N" fromLane="0" toLane="1" dir="l" state="M"/>
    <connection from=":C_19" to="C2W" fromLane="0" toLane="1" via=":C_27_0" dir="t" state="m"/>
    <connection from=":C_27" to="C2W" fromLane="0" toLane="1" dir="t" state="M"/>
    <connection from=":E_0" to="E2C" fromLane="0" toLane="1" dir="t" state="M"/>
    <connection from=":N_0" to="N2C" fromLane="0" toLane="1" dir="t" state="M"/>
    <connection from=":S_0" to="S2C" fromLane="0" toLane="1" dir="t" state="M"/>
    <connection from=":W_0" to="W2C" fromLane="0" toLane="1" dir="t" state="M"/>

</net>
